/*---------------------------------------------------------------------------*\
  =========                 |
  \\      /  F ield         | OpenFOAM: The Open Source CFD Toolbox
   \\    /   O peration     | Website:  https://openfoam.org
    \\  /    A nd           | Version:  10
     \\/     M anipulation  |
\*---------------------------------------------------------------------------*/
Build  : 10-99dc6ada605e
Exec   : impesFoam
Date   : Mar 23 2023
Time   : 09:30:28
Host   : "cuphead"
PID    : 17478
I/O    : uncollated
Case   : /home/phorgue/OpenFOAM/applications/solvers/porousMultiphaseFoam/tutorials/impesFoam-tutorials/capillarityValidation/BrooksAndCorey
nProcs : 1
sigFpe : Enabling floating point exception trapping (FOAM_SIGFPE).
fileModificationChecking : Monitoring run-time modified files using timeStampMaster (fileModificationSkew 10)
allowSystemOperations : Allowing user-supplied system call operations

// * * * * * * * * * * * * * * * * * * * * * * * * * * * * * * * * * * * * * //

**********************************
Current version of PMF is 2303.0.0
**********************************

Create time

Create mesh for time = 0


Reading g
Reading pressure field p

Reading saturation field Sb

Reading transportProperties

Computing field phia from field Ua

Computing field phib from field Ub

Selecting porousMedium model => simplePorosity

Selecting capillarity model for field Sb => BrooksAndCorey

Brooks and Corey parameters for capillarity pressure model
{
    Sbmin 0.001
    Sbmax 0.999
    pc0 1000
    alpha 0.5
    hd 0
} 

Selecting relativePermeability model for field Sb => BrooksAndCorey

Brooks and Corey parameters for relative permeability model
{
    Sbmin 0.001
    Sbmax 0.999
    n 3
    kramax 1
    krbmax 1
} 


Reading field U
Reading/calculating face flux field phi

dimensions      [0 0 0 0 0 0 0];

internalField   nonuniform List<scalar> 
1000
(
0.5
0.5
0.5
0.5
0.5
0.5
0.5
0.5
0.5
0.5
0.5
0.5
0.5
0.5
0.5
0.5
0.5
0.5
0.5
0.5
0.5
0.5
0.5
0.5
0.5
0.5
0.5
0.5
0.5
0.5
0.5
0.5
0.5
0.5
0.5
0.5
0.5
0.5
0.5
0.5
0.5
0.5
0.5
0.5
0.5
0.5
0.5
0.5
0.5
0.5
0.5
0.5
0.5
0.5
0.5
0.5
0.5
0.5
0.5
0.5
0.5
0.5
0.5
0.5
0.5
0.5
0.5
0.5
0.5
0.5
0.5
0.5
0.5
0.5
0.5
0.5
0.5
0.5
0.5
0.5
0.5
0.5
0.5
0.5
0.5
0.5
0.5
0.5
0.5
0.5
0.5
0.5
0.5
0.5
0.5
0.5
0.5
0.5
0.5
0.5
0.5
0.5
0.5
0.5
0.5
0.5
0.5
0.5
0.5
0.5
0.5
0.5
0.5
0.5
0.5
0.5
0.5
0.5
0.5
0.5
0.5
0.5
0.5
0.5
0.5
0.5
0.5
0.5
0.5
0.5
0.5
0.5
0.5
0.5
0.5
0.5
0.5
0.5
0.5
0.5
0.5
0.5
0.5
0.5
0.5
0.5
0.5
0.5
0.5
0.5
0.5
0.5
0.5
0.5
0.5
0.5
0.5
0.5
0.5
0.5
0.5
0.5
0.5
0.5
0.5
0.5
0.5
0.5
0.5
0.5
0.5
0.5
0.5
0.5
0.5
0.5
0.5
0.5
0.5
0.5
0.5
0.5
0.5
0.5
0.5
0.5
0.5
0.5
0.5
0.5
0.5
0.5
0.5
0.5
0.5
0.5
0.5
0.5
0.5
0.5
0.5
0.5
0.5
0.5
0.5
0.5
0.5
0.5
0.5
0.5
0.5
0.5
0.5
0.5
0.5
0.5
0.5
0.5
0.5
0.5
0.5
0.5
0.5
0.5
0.5
0.5
0.5
0.5
0.5
0.5
0.5
0.5
0.5
0.5
0.5
0.5
0.5
0.5
0.5
0.5
0.5
0.5
0.5
0.5
0.5
0.5
0.5
0.5
0.5
0.5
0.5
0.5
0.5
0.5
0.5
0.5
0.5
0.5
0.5
0.5
0.5
0.5
0.5
0.5
0.5
0.5
0.5
0.5
0.5
0.5
0.5
0.5
0.5
0.5
0.5
0.5
0.5
0.5
0.5
0.5
0.5
0.5
0.5
0.5
0.5
0.5
0.5
0.5
0.5
0.5
0.5
0.5
0.5
0.5
0.5
0.5
0.5
0.5
0.5
0.5
0.5
0.5
0.5
0.5
0.5
0.5
0.5
0.5
0.5
0.5
0.5
0.5
0.5
0.5
0.5
0.5
0.5
0.5
0.5
0.5
0.5
0.5
0.5
0.5
0.5
0.5
0.5
0.5
0.5
0.5
0.5
0.5
0.5
0.5
0.5
0.5
0.5
0.5
0.5
0.5
0.5
0.5
0.5
0.5
0.5
0.5
0.5
0.5
0.5
0.5
0.5
0.5
0.5
0.5
0.5
0.5
0.5
0.5
0.5
0.5
0.5
0.5
0.5
0.5
0.5
0.5
0.5
0.5
0.5
0.5
0.5
0.5
0.5
0.5
0.5
0.5
0.5
0.5
0.5
0.5
0.5
0.5
0.5
0.5
0.5
0.5
0.5
0.5
0.5
0.5
0.5
0.5
0.5
0.5
0.5
0.5
0.5
0.5
0.5
0.5
0.5
0.5
0.5
0.5
0.5
0.5
0.5
0.5
0.5
0.5
0.5
0.5
0.5
0.5
0.5
0.5
0.5
0.5
0.5
0.5
0.5
0.5
0.5
0.5
0.5
0.5
0.5
0.5
0.5
0.5
0.5
0.5
0.5
0.5
0.5
0.5
0.5
0.5
0.5
0.5
0.5
0.5
0.5
0.5
0.5
0.5
0.5
0.5
0.5
0.5
0.5
0.5
0.5
0.5
0.5
0.5
0.5
0.5
0.5
0.5
0.5
0.5
0.5
0.5
0.5
0.5
0.5
0.5
0.5
0.5
0.5
0.5
0.5
0.5
0.5
0.5
0.5
0.5
0.5
0.5
0.5
0.5
0.5
0.5
0.5
0.5
0.5
0.5
0.5
0.5
0.5
0.5
0.5
0.5
0.5
0.5
0.5
0.5
0.5
0.5
0.001002
0.001002
0.001002
0.001002
0.001002
0.001002
0.001002
0.001002
0.001002
0.001002
0.001002
0.001002
0.001002
0.001002
0.001002
0.001002
0.001002
0.001002
0.001002
0.001002
0.001002
0.001002
0.001002
0.001002
0.001002
0.001002
0.001002
0.001002
0.001002
0.001002
0.001002
0.001002
0.001002
0.001002
0.001002
0.001002
0.001002
0.001002
0.001002
0.001002
0.001002
0.001002
0.001002
0.001002
0.001002
0.001002
0.001002
0.001002
0.001002
0.001002
0.001002
0.001002
0.001002
0.001002
0.001002
0.001002
0.001002
0.001002
0.001002
0.001002
0.001002
0.001002
0.001002
0.001002
0.001002
0.001002
0.001002
0.001002
0.001002
0.001002
0.001002
0.001002
0.001002
0.001002
0.001002
0.001002
0.001002
0.001002
0.001002
0.001002
0.001002
0.001002
0.001002
0.001002
0.001002
0.001002
0.001002
0.001002
0.001002
0.001002
0.001002
0.001002
0.001002
0.001002
0.001002
0.001002
0.001002
0.001002
0.001002
0.001002
0.001002
0.001002
0.001002
0.001002
0.001002
0.001002
0.001002
0.001002
0.001002
0.001002
0.001002
0.001002
0.001002
0.001002
0.001002
0.001002
0.001002
0.001002
0.001002
0.001002
0.001002
0.001002
0.001002
0.001002
0.001002
0.001002
0.001002
0.001002
0.001002
0.001002
0.001002
0.001002
0.001002
0.001002
0.001002
0.001002
0.001002
0.001002
0.001002
0.001002
0.001002
0.001002
0.001002
0.001002
0.001002
0.001002
0.001002
0.001002
0.001002
0.001002
0.001002
0.001002
0.001002
0.001002
0.001002
0.001002
0.001002
0.001002
0.001002
0.001002
0.001002
0.001002
0.001002
0.001002
0.001002
0.001002
0.001002
0.001002
0.001002
0.001002
0.001002
0.001002
0.001002
0.001002
0.001002
0.001002
0.001002
0.001002
0.001002
0.001002
0.001002
0.001002
0.001002
0.001002
0.001002
0.001002
0.001002
0.001002
0.001002
0.001002
0.001002
0.001002
0.001002
0.001002
0.001002
0.001002
0.001002
0.001002
0.001002
0.001002
0.001002
0.001002
0.001002
0.001002
0.001002
0.001002
0.001002
0.001002
0.001002
0.001002
0.001002
0.001002
0.001002
0.001002
0.001002
0.001002
0.001002
0.001002
0.001002
0.001002
0.001002
0.001002
0.001002
0.001002
0.001002
0.001002
0.001002
0.001002
0.001002
0.001002
0.001002
0.001002
0.001002
0.001002
0.001002
0.001002
0.001002
0.001002
0.001002
0.001002
0.001002
0.001002
0.001002
0.001002
0.001002
0.001002
0.001002
0.001002
0.001002
0.001002
0.001002
0.001002
0.001002
0.001002
0.001002
0.001002
0.001002
0.001002
0.001002
0.001002
0.001002
0.001002
0.001002
0.001002
0.001002
0.001002
0.001002
0.001002
0.001002
0.001002
0.001002
0.001002
0.001002
0.001002
0.001002
0.001002
0.001002
0.001002
0.001002
0.001002
0.001002
0.001002
0.001002
0.001002
0.001002
0.001002
0.001002
0.001002
0.001002
0.001002
0.001002
0.001002
0.001002
0.001002
0.001002
0.001002
0.001002
0.001002
0.001002
0.001002
0.001002
0.001002
0.001002
0.001002
0.001002
0.001002
0.001002
0.001002
0.001002
0.001002
0.001002
0.001002
0.001002
0.001002
0.001002
0.001002
0.001002
0.001002
0.001002
0.001002
0.001002
0.001002
0.001002
0.001002
0.001002
0.001002
0.001002
0.001002
0.001002
0.001002
0.001002
0.001002
0.001002
0.001002
0.001002
0.001002
0.001002
0.001002
0.001002
0.001002
0.001002
0.001002
0.001002
0.001002
0.001002
0.001002
0.001002
0.001002
0.001002
0.001002
0.001002
0.001002
0.001002
0.001002
0.001002
0.001002
0.001002
0.001002
0.001002
0.001002
0.001002
0.001002
0.001002
0.001002
0.001002
0.001002
0.001002
0.001002
0.001002
0.001002
0.001002
0.001002
0.001002
0.001002
0.001002
0.001002
0.001002
0.001002
0.001002
0.001002
0.001002
0.001002
0.001002
0.001002
0.001002
0.001002
0.001002
0.001002
0.001002
0.001002
0.001002
0.001002
0.001002
0.001002
0.001002
0.001002
0.001002
0.001002
0.001002
0.001002
0.001002
0.001002
0.001002
0.001002
0.001002
0.001002
0.001002
0.001002
0.001002
0.001002
0.001002
0.001002
0.001002
0.001002
0.001002
0.001002
0.001002
0.001002
0.001002
0.001002
0.001002
0.001002
0.001002
0.001002
0.001002
0.001002
0.001002
0.001002
0.001002
0.001002
0.001002
0.001002
0.001002
0.001002
0.001002
0.001002
0.001002
0.001002
0.001002
0.001002
0.001002
0.001002
0.001002
0.001002
0.001002
0.001002
0.001002
0.001002
0.001002
0.001002
0.001002
0.001002
0.001002
0.001002
0.001002
0.001002
0.001002
0.001002
0.001002
0.001002
0.001002
0.001002
0.001002
0.001002
0.001002
0.001002
0.001002
0.001002
0.001002
0.001002
0.001002
0.001002
0.001002
0.001002
0.001002
0.001002
0.001002
0.001002
0.001002
0.001002
0.001002
0.001002
0.001002
0.001002
0.001002
0.001002
0.001002
0.001002
0.001002
0.001002
0.001002
0.001002
0.001002
0.001002
0.001002
0.001002
0.001002
0.001002
0.001002
0.001002
)
;

boundaryField
{
    inlet
    {
        type            calculated;
        value           uniform 0;
    }
    outlet
    {
        type            calculated;
        value           uniform 0.5;
    }
    frontAndBack
    {
        type            empty;
    }
}

dimensions      [1 -1 -2 0 0 0 0];

internalField   nonuniform List<scalar> 
1000
(
1414.21
1414.21
1414.21
1414.21
1414.21
1414.21
1414.21
1414.21
1414.21
1414.21
1414.21
1414.21
1414.21
1414.21
1414.21
1414.21
1414.21
1414.21
1414.21
1414.21
1414.21
1414.21
1414.21
1414.21
1414.21
1414.21
1414.21
1414.21
1414.21
1414.21
1414.21
1414.21
1414.21
1414.21
1414.21
1414.21
1414.21
1414.21
1414.21
1414.21
1414.21
1414.21
1414.21
1414.21
1414.21
1414.21
1414.21
1414.21
1414.21
1414.21
1414.21
1414.21
1414.21
1414.21
1414.21
1414.21
1414.21
1414.21
1414.21
1414.21
1414.21
1414.21
1414.21
1414.21
1414.21
1414.21
1414.21
1414.21
1414.21
1414.21
1414.21
1414.21
1414.21
1414.21
1414.21
1414.21
1414.21
1414.21
1414.21
1414.21
1414.21
1414.21
1414.21
1414.21
1414.21
1414.21
1414.21
1414.21
1414.21
1414.21
1414.21
1414.21
1414.21
1414.21
1414.21
1414.21
1414.21
1414.21
1414.21
1414.21
1414.21
1414.21
1414.21
1414.21
1414.21
1414.21
1414.21
1414.21
1414.21
1414.21
1414.21
1414.21
1414.21
1414.21
1414.21
1414.21
1414.21
1414.21
1414.21
1414.21
1414.21
1414.21
1414.21
1414.21
1414.21
1414.21
1414.21
1414.21
1414.21
1414.21
1414.21
1414.21
1414.21
1414.21
1414.21
1414.21
1414.21
1414.21
1414.21
1414.21
1414.21
1414.21
1414.21
1414.21
1414.21
1414.21
1414.21
1414.21
1414.21
1414.21
1414.21
1414.21
1414.21
1414.21
1414.21
1414.21
1414.21
1414.21
1414.21
1414.21
1414.21
1414.21
1414.21
1414.21
1414.21
1414.21
1414.21
1414.21
1414.21
1414.21
1414.21
1414.21
1414.21
1414.21
1414.21
1414.21
1414.21
1414.21
1414.21
1414.21
1414.21
1414.21
1414.21
1414.21
1414.21
1414.21
1414.21
1414.21
1414.21
1414.21
1414.21
1414.21
1414.21
1414.21
1414.21
1414.21
1414.21
1414.21
1414.21
1414.21
1414.21
1414.21
1414.21
1414.21
1414.21
1414.21
1414.21
1414.21
1414.21
1414.21
1414.21
1414.21
1414.21
1414.21
1414.21
1414.21
1414.21
1414.21
1414.21
1414.21
1414.21
1414.21
1414.21
1414.21
1414.21
1414.21
1414.21
1414.21
1414.21
1414.21
1414.21
1414.21
1414.21
1414.21
1414.21
1414.21
1414.21
1414.21
1414.21
1414.21
1414.21
1414.21
1414.21
1414.21
1414.21
1414.21
1414.21
1414.21
1414.21
1414.21
1414.21
1414.21
1414.21
1414.21
1414.21
1414.21
1414.21
1414.21
1414.21
1414.21
1414.21
1414.21
1414.21
1414.21
1414.21
1414.21
1414.21
1414.21
1414.21
1414.21
1414.21
1414.21
1414.21
1414.21
1414.21
1414.21
1414.21
1414.21
1414.21
1414.21
1414.21
1414.21
1414.21
1414.21
1414.21
1414.21
1414.21
1414.21
1414.21
1414.21
1414.21
1414.21
1414.21
1414.21
1414.21
1414.21
1414.21
1414.21
1414.21
1414.21
1414.21
1414.21
1414.21
1414.21
1414.21
1414.21
1414.21
1414.21
1414.21
1414.21
1414.21
1414.21
1414.21
1414.21
1414.21
1414.21
1414.21
1414.21
1414.21
1414.21
1414.21
1414.21
1414.21
1414.21
1414.21
1414.21
1414.21
1414.21
1414.21
1414.21
1414.21
1414.21
1414.21
1414.21
1414.21
1414.21
1414.21
1414.21
1414.21
1414.21
1414.21
1414.21
1414.21
1414.21
1414.21
1414.21
1414.21
1414.21
1414.21
1414.21
1414.21
1414.21
1414.21
1414.21
1414.21
1414.21
1414.21
1414.21
1414.21
1414.21
1414.21
1414.21
1414.21
1414.21
1414.21
1414.21
1414.21
1414.21
1414.21
1414.21
1414.21
1414.21
1414.21
1414.21
1414.21
1414.21
1414.21
1414.21
1414.21
1414.21
1414.21
1414.21
1414.21
1414.21
1414.21
1414.21
1414.21
1414.21
1414.21
1414.21
1414.21
1414.21
1414.21
1414.21
1414.21
1414.21
1414.21
1414.21
1414.21
1414.21
1414.21
1414.21
1414.21
1414.21
1414.21
1414.21
1414.21
1414.21
1414.21
1414.21
1414.21
1414.21
1414.21
1414.21
1414.21
1414.21
1414.21
1414.21
1414.21
1414.21
1414.21
1414.21
1414.21
1414.21
1414.21
1414.21
1414.21
1414.21
1414.21
1414.21
1414.21
1414.21
1414.21
1414.21
1414.21
1414.21
1414.21
1414.21
1414.21
1414.21
1414.21
1414.21
1414.21
1414.21
1414.21
1414.21
1414.21
1414.21
1414.21
1414.21
1414.21
1414.21
1414.21
1414.21
1414.21
1414.21
1414.21
1414.21
1414.21
1414.21
1414.21
1414.21
1414.21
1414.21
1414.21
1414.21
1414.21
1414.21
1414.21
1414.21
1414.21
1414.21
1414.21
1414.21
1414.21
1414.21
1414.21
1414.21
1414.21
1414.21
1414.21
1414.21
1414.21
1414.21
1414.21
1414.21
1414.21
1414.21
1414.21
1414.21
1414.21
1414.21
1414.21
1414.21
1414.21
1414.21
1414.21
1414.21
1414.21
1414.21
31591.1
31591.1
31591.1
31591.1
31591.1
31591.1
31591.1
31591.1
31591.1
31591.1
31591.1
31591.1
31591.1
31591.1
31591.1
31591.1
31591.1
31591.1
31591.1
31591.1
31591.1
31591.1
31591.1
31591.1
31591.1
31591.1
31591.1
31591.1
31591.1
31591.1
31591.1
31591.1
31591.1
31591.1
31591.1
31591.1
31591.1
31591.1
31591.1
31591.1
31591.1
31591.1
31591.1
31591.1
31591.1
31591.1
31591.1
31591.1
31591.1
31591.1
31591.1
31591.1
31591.1
31591.1
31591.1
31591.1
31591.1
31591.1
31591.1
31591.1
31591.1
31591.1
31591.1
31591.1
31591.1
31591.1
31591.1
31591.1
31591.1
31591.1
31591.1
31591.1
31591.1
31591.1
31591.1
31591.1
31591.1
31591.1
31591.1
31591.1
31591.1
31591.1
31591.1
31591.1
31591.1
31591.1
31591.1
31591.1
31591.1
31591.1
31591.1
31591.1
31591.1
31591.1
31591.1
31591.1
31591.1
31591.1
31591.1
31591.1
31591.1
31591.1
31591.1
31591.1
31591.1
31591.1
31591.1
31591.1
31591.1
31591.1
31591.1
31591.1
31591.1
31591.1
31591.1
31591.1
31591.1
31591.1
31591.1
31591.1
31591.1
31591.1
31591.1
31591.1
31591.1
31591.1
31591.1
31591.1
31591.1
31591.1
31591.1
31591.1
31591.1
31591.1
31591.1
31591.1
31591.1
31591.1
31591.1
31591.1
31591.1
31591.1
31591.1
31591.1
31591.1
31591.1
31591.1
31591.1
31591.1
31591.1
31591.1
31591.1
31591.1
31591.1
31591.1
31591.1
31591.1
31591.1
31591.1
31591.1
31591.1
31591.1
31591.1
31591.1
31591.1
31591.1
31591.1
31591.1
31591.1
31591.1
31591.1
31591.1
31591.1
31591.1
31591.1
31591.1
31591.1
31591.1
31591.1
31591.1
31591.1
31591.1
31591.1
31591.1
31591.1
31591.1
31591.1
31591.1
31591.1
31591.1
31591.1
31591.1
31591.1
31591.1
31591.1
31591.1
31591.1
31591.1
31591.1
31591.1
31591.1
31591.1
31591.1
31591.1
31591.1
31591.1
31591.1
31591.1
31591.1
31591.1
31591.1
31591.1
31591.1
31591.1
31591.1
31591.1
31591.1
31591.1
31591.1
31591.1
31591.1
31591.1
31591.1
31591.1
31591.1
31591.1
31591.1
31591.1
31591.1
31591.1
31591.1
31591.1
31591.1
31591.1
31591.1
31591.1
31591.1
31591.1
31591.1
31591.1
31591.1
31591.1
31591.1
31591.1
31591.1
31591.1
31591.1
31591.1
31591.1
31591.1
31591.1
31591.1
31591.1
31591.1
31591.1
31591.1
31591.1
31591.1
31591.1
31591.1
31591.1
31591.1
31591.1
31591.1
31591.1
31591.1
31591.1
31591.1
31591.1
31591.1
31591.1
31591.1
31591.1
31591.1
31591.1
31591.1
31591.1
31591.1
31591.1
31591.1
31591.1
31591.1
31591.1
31591.1
31591.1
31591.1
31591.1
31591.1
31591.1
31591.1
31591.1
31591.1
31591.1
31591.1
31591.1
31591.1
31591.1
31591.1
31591.1
31591.1
31591.1
31591.1
31591.1
31591.1
31591.1
31591.1
31591.1
31591.1
31591.1
31591.1
31591.1
31591.1
31591.1
31591.1
31591.1
31591.1
31591.1
31591.1
31591.1
31591.1
31591.1
31591.1
31591.1
31591.1
31591.1
31591.1
31591.1
31591.1
31591.1
31591.1
31591.1
31591.1
31591.1
31591.1
31591.1
31591.1
31591.1
31591.1
31591.1
31591.1
31591.1
31591.1
31591.1
31591.1
31591.1
31591.1
31591.1
31591.1
31591.1
31591.1
31591.1
31591.1
31591.1
31591.1
31591.1
31591.1
31591.1
31591.1
31591.1
31591.1
31591.1
31591.1
31591.1
31591.1
31591.1
31591.1
31591.1
31591.1
31591.1
31591.1
31591.1
31591.1
31591.1
31591.1
31591.1
31591.1
31591.1
31591.1
31591.1
31591.1
31591.1
31591.1
31591.1
31591.1
31591.1
31591.1
31591.1
31591.1
31591.1
31591.1
31591.1
31591.1
31591.1
31591.1
31591.1
31591.1
31591.1
31591.1
31591.1
31591.1
31591.1
31591.1
31591.1
31591.1
31591.1
31591.1
31591.1
31591.1
31591.1
31591.1
31591.1
31591.1
31591.1
31591.1
31591.1
31591.1
31591.1
31591.1
31591.1
31591.1
31591.1
31591.1
31591.1
31591.1
31591.1
31591.1
31591.1
31591.1
31591.1
31591.1
31591.1
31591.1
31591.1
31591.1
31591.1
31591.1
31591.1
31591.1
31591.1
31591.1
31591.1
31591.1
31591.1
31591.1
31591.1
31591.1
31591.1
31591.1
31591.1
31591.1
31591.1
31591.1
31591.1
31591.1
31591.1
31591.1
31591.1
31591.1
31591.1
31591.1
31591.1
31591.1
31591.1
31591.1
31591.1
31591.1
31591.1
31591.1
31591.1
31591.1
31591.1
31591.1
31591.1
31591.1
31591.1
31591.1
31591.1
31591.1
31591.1
31591.1
31591.1
31591.1
31591.1
31591.1
31591.1
31591.1
31591.1
31591.1
31591.1
31591.1
31591.1
31591.1
31591.1
31591.1
31591.1
31591.1
31591.1
31591.1
31591.1
31591.1
)
;

boundaryField
{
    inlet
    {
        type            calculated;
        value           uniform 6.7039e+156;
    }
    outlet
    {
        type            calculated;
        value           uniform 1414.21;
    }
    frontAndBack
    {
        type            empty;
    }
}

